Version 4
SHEET 1 8420 3552
WIRE -512 208 -512 192
WIRE -480 208 -480 192
WIRE -448 208 -448 192
WIRE -320 208 -320 192
WIRE -288 208 -288 192
WIRE -256 208 -256 192
WIRE -128 208 -128 192
WIRE -96 208 -96 192
WIRE -64 208 -64 192
WIRE 64 208 64 192
WIRE 96 208 96 192
WIRE 128 208 128 192
WIRE 256 208 256 192
WIRE 288 208 288 192
WIRE 320 208 320 192
WIRE 448 208 448 192
WIRE 480 208 480 192
WIRE 512 208 512 192
WIRE 640 208 640 192
WIRE 672 208 672 192
WIRE 704 208 704 192
WIRE 832 208 832 192
WIRE 864 208 864 192
WIRE 896 208 896 192
WIRE -752 256 -752 240
WIRE -640 256 -640 240
WIRE -400 272 -416 272
WIRE -208 272 -224 272
WIRE -16 272 -32 272
WIRE 176 272 160 272
WIRE 368 272 352 272
WIRE 560 272 544 272
WIRE 752 272 736 272
WIRE 944 272 928 272
WIRE -352 336 -416 336
WIRE -160 336 -224 336
WIRE 32 336 -32 336
WIRE 224 336 160 336
WIRE 416 336 352 336
WIRE 608 336 544 336
WIRE 800 336 736 336
WIRE 944 336 928 336
FLAG -752 336 0
FLAG -640 336 0
FLAG -640 240 VN
FLAG -752 240 VP
FLAG -480 192 0
FLAG -512 192 VP
FLAG -448 192 VN
FLAG -288 192 0
FLAG -320 192 VP
FLAG -256 192 VN
FLAG -96 192 0
FLAG -128 192 VP
FLAG -64 192 VN
FLAG 96 192 0
FLAG 64 192 VP
FLAG 128 192 VN
FLAG 288 192 0
FLAG 256 192 VP
FLAG 320 192 VN
FLAG 480 192 0
FLAG 448 192 VP
FLAG 512 192 VN
FLAG 672 192 0
FLAG 640 192 VP
FLAG 704 192 VN
FLAG 864 192 0
FLAG 832 192 VP
FLAG 896 192 VN
FLAG -544 272 VN
FLAG -544 304 VP
FLAG -352 272 0
FLAG -160 272 0
FLAG 32 272 VP
FLAG 224 272 VN
FLAG 416 272 0
FLAG 608 272 VP
FLAG 800 272 VN
FLAG -352 304 0
FLAG -160 304 VN
FLAG 32 304 VP
FLAG 224 304 VP
FLAG 416 304 VN
FLAG 608 304 0
FLAG 800 304 VP
FLAG -544 336 VN
SYMBOL voltage -752 240 R0
WINDOW 123 0 0 Left 0
WINDOW 39 0 0 Left 0
SYMATTR InstName V1
SYMATTR Value 5
SYMBOL voltage -640 352 R180
WINDOW 123 0 0 Left 0
WINDOW 39 0 0 Left 0
SYMATTR InstName V2
SYMATTR Value 5
SYMBOL tri_fulladd -480 272 R0
SYMATTR InstName X3
SYMBOL tri_fulladd -288 272 R0
SYMATTR InstName X4
SYMBOL tri_fulladd -96 272 R0
SYMATTR InstName X6
SYMBOL tri_fulladd 96 272 R0
SYMATTR InstName X7
SYMBOL tri_fulladd 288 272 R0
SYMATTR InstName X8
SYMBOL tri_fulladd 480 272 R0
SYMATTR InstName X9
SYMBOL tri_fulladd 672 272 R0
SYMATTR InstName X10
SYMBOL tri_fulladd 864 272 R0
SYMATTR InstName X11
TEXT -776 376 Left 2 !.tran 40m
TEXT -776 400 Left 2 !.Parteispendenaffäre R_pull=10k
TEXT -1400 400 Left 2 ;https://www.mikrocontroller.net/topic/246824#2523691
