Version 4
SHEET 1 8420 3552
WIRE 16 192 16 176
WIRE 48 192 48 176
WIRE 80 192 80 176
WIRE -752 256 -752 240
WIRE -640 256 -640 240
WIRE -48 256 -240 256
WIRE -16 256 -48 256
WIRE 128 256 112 256
WIRE -240 272 -240 256
WIRE -48 320 -48 256
WIRE 160 320 -48 320
WIRE 16 384 16 368
WIRE 48 384 48 368
WIRE 80 384 80 368
WIRE 272 384 272 368
WIRE 304 384 304 368
WIRE 336 384 336 368
WIRE -16 448 -240 448
WIRE 128 448 112 448
WIRE 160 448 160 320
WIRE 240 448 160 448
WIRE 384 448 368 448
WIRE -240 464 -240 448
FLAG -752 336 0
FLAG -640 336 0
FLAG -640 240 VN
FLAG -752 240 VP
FLAG -240 352 0
FLAG -240 544 0
FLAG 80 176 VN
FLAG 16 176 VP
FLAG 48 176 0
FLAG 80 368 VN
FLAG 16 368 VP
FLAG 48 368 0
FLAG 336 368 VN
FLAG 272 368 VP
FLAG 304 368 0
SYMBOL voltage -752 240 R0
WINDOW 123 0 0 Left 0
WINDOW 39 0 0 Left 0
SYMATTR InstName V1
SYMATTR Value 5
SYMBOL voltage -640 352 R180
WINDOW 123 0 0 Left 0
WINDOW 39 0 0 Left 0
SYMATTR InstName V2
SYMATTR Value 5
SYMBOL voltage -240 256 R0
WINDOW 123 0 0 Left 0
WINDOW 39 0 0 Left 0
SYMATTR InstName V3
SYMATTR Value SINE(0 5 100)
SYMBOL voltage -240 448 R0
WINDOW 123 0 0 Left 0
WINDOW 39 0 0 Left 0
SYMATTR InstName V4
SYMATTR Value SINE(0 5 50)
SYMBOL tri_buffer1 48 256 R0
SYMATTR InstName X1
SYMBOL tri_buffer1 48 448 R0
SYMATTR InstName X2
SYMBOL tri_buffer1_f 304 448 R0
SYMATTR InstName X3
TEXT -776 376 Left 2 !.tran 40m
TEXT -776 400 Left 2 !.Parteispendenaffäre R_pull=10k
TEXT -1400 400 Left 2 ;https://www.mikrocontroller.net/topic/246824#2523691
