Version 4
SHEET 1 1568 944
WIRE 384 -64 384 -80
WIRE 416 -64 416 -80
WIRE 448 -64 448 -80
WIRE 592 -64 592 -80
WIRE 624 -64 624 -80
WIRE 656 -64 656 -80
WIRE 352 0 336 0
WIRE 544 0 480 0
WIRE 560 0 544 0
WIRE 752 0 688 0
WIRE 512 32 480 32
WIRE 720 32 688 32
WIRE 384 144 384 128
WIRE 416 144 416 128
WIRE 448 144 448 128
WIRE 592 144 592 128
WIRE 624 144 624 128
WIRE 656 144 656 128
WIRE 800 144 800 128
WIRE 832 144 832 128
WIRE 864 144 864 128
WIRE 336 208 336 0
WIRE 336 208 -48 208
WIRE 352 208 336 208
WIRE 496 208 480 208
WIRE 544 208 544 0
WIRE 560 208 544 208
WIRE 704 208 688 208
WIRE 752 208 752 0
WIRE 768 208 752 208
WIRE 912 208 896 208
WIRE 352 240 336 240
WIRE 560 240 544 240
WIRE 768 240 752 240
WIRE 496 288 496 208
WIRE 704 288 704 208
WIRE 704 288 496 288
WIRE 912 288 912 208
WIRE 912 288 704 288
WIRE 944 288 912 288
WIRE 48 320 48 304
WIRE 80 320 80 304
WIRE 112 320 112 304
WIRE 224 320 224 304
WIRE 256 320 256 304
WIRE 288 320 288 304
WIRE -16 384 -48 384
WIRE 16 384 -16 384
WIRE 192 384 144 384
WIRE 336 384 336 240
WIRE 336 384 320 384
WIRE 976 416 976 400
WIRE 1008 416 1008 400
WIRE 1040 416 1040 400
WIRE 512 480 512 32
WIRE 944 480 512 480
WIRE 1088 480 1072 480
WIRE 48 512 48 496
WIRE 80 512 80 496
WIRE 112 512 112 496
WIRE 224 512 224 496
WIRE 256 512 256 496
WIRE 288 512 288 496
WIRE 544 512 544 240
WIRE 944 512 544 512
WIRE 1280 528 1280 512
WIRE 1312 528 1312 512
WIRE 1344 528 1344 512
WIRE -16 576 -16 384
WIRE 16 576 -16 576
WIRE 192 576 144 576
WIRE 544 576 544 512
WIRE 544 576 320 576
WIRE 1088 592 1088 480
WIRE 1152 592 1088 592
WIRE 1248 592 1152 592
WIRE 1408 592 1376 592
WIRE 816 624 816 608
WIRE 848 624 848 608
WIRE 880 624 880 608
WIRE 976 624 976 608
WIRE 1008 624 1008 608
WIRE 1040 624 1040 608
WIRE 1152 624 1152 592
WIRE 512 672 512 480
WIRE 784 672 512 672
WIRE 944 688 912 688
WIRE 1088 688 1088 592
WIRE 1088 688 1072 688
WIRE 48 704 48 688
WIRE 80 704 80 688
WIRE 112 704 112 688
WIRE 224 704 224 688
WIRE 256 704 256 688
WIRE 288 704 288 688
WIRE 720 704 720 32
WIRE 784 704 720 704
WIRE 944 720 928 720
WIRE 1152 720 1152 704
WIRE -16 768 -16 576
WIRE 16 768 -16 768
WIRE 192 768 144 768
WIRE 752 768 752 240
WIRE 752 768 320 768
WIRE 928 768 928 720
WIRE 928 768 752 768
FLAG -48 208 IN1
IOPIN -48 208 In
FLAG 944 288 OUT
IOPIN 944 288 Out
FLAG -48 384 IN2
IOPIN -48 384 In
FLAG 48 304 V+
IOPIN 48 304 In
FLAG 80 304 G
IOPIN 80 304 In
FLAG 112 304 V-
IOPIN 112 304 In
FLAG 1408 592 CO
IOPIN 1408 592 Out
FLAG 224 304 V+
IOPIN 224 304 In
FLAG 256 304 G
IOPIN 256 304 In
FLAG 288 304 V-
IOPIN 288 304 In
FLAG 48 496 V+
IOPIN 48 496 In
FLAG 80 496 G
IOPIN 80 496 In
FLAG 112 496 V-
IOPIN 112 496 In
FLAG 224 496 V+
IOPIN 224 496 In
FLAG 256 496 G
IOPIN 256 496 In
FLAG 288 496 V-
IOPIN 288 496 In
FLAG 48 688 V+
IOPIN 48 688 In
FLAG 80 688 G
IOPIN 80 688 In
FLAG 112 688 V-
IOPIN 112 688 In
FLAG 224 688 V+
IOPIN 224 688 In
FLAG 256 688 G
IOPIN 256 688 In
FLAG 288 688 V-
IOPIN 288 688 In
FLAG 816 608 V+
IOPIN 816 608 In
FLAG 848 608 G
IOPIN 848 608 In
FLAG 880 608 V-
IOPIN 880 608 In
FLAG 976 608 V+
IOPIN 976 608 In
FLAG 1008 608 G
IOPIN 1008 608 In
FLAG 1040 608 V-
IOPIN 1040 608 In
FLAG 976 400 V+
IOPIN 976 400 In
FLAG 1008 400 G
IOPIN 1008 400 In
FLAG 1040 400 V-
IOPIN 1040 400 In
FLAG 1152 720 V-
IOPIN 1152 720 In
FLAG 1280 512 V+
IOPIN 1280 512 In
FLAG 1312 512 G
IOPIN 1312 512 In
FLAG 1344 512 V-
IOPIN 1344 512 In
FLAG 800 128 V+
IOPIN 800 128 In
FLAG 832 128 G
IOPIN 832 128 In
FLAG 864 128 V-
IOPIN 864 128 In
FLAG 592 128 V+
IOPIN 592 128 In
FLAG 624 128 G
IOPIN 624 128 In
FLAG 656 128 V-
IOPIN 656 128 In
FLAG 384 128 V+
IOPIN 384 128 In
FLAG 416 128 G
IOPIN 416 128 In
FLAG 448 128 V-
IOPIN 448 128 In
FLAG 384 -80 V+
IOPIN 384 -80 In
FLAG 416 -80 G
IOPIN 416 -80 In
FLAG 448 -80 V-
IOPIN 448 -80 In
FLAG 592 -80 V+
IOPIN 592 -80 In
FLAG 624 -80 G
IOPIN 624 -80 In
FLAG 656 -80 V-
IOPIN 656 -80 In
SYMBOL tri_sel0 80 384 R0
SYMATTR InstName X1
SYMBOL tri_sel1 80 576 R0
SYMATTR InstName X2
SYMBOL tri_sel2 80 768 R0
SYMATTR InstName X3
SYMBOL tri_inv 256 384 R0
SYMATTR InstName X4
SYMBOL tri_inv 256 576 R0
SYMATTR InstName X5
SYMBOL tri_inv 256 768 R0
SYMATTR InstName X6
SYMBOL tri_inc1 416 0 R0
SYMATTR InstName X7
SYMBOL tri_inc1 624 0 R0
SYMATTR InstName X8
SYMBOL tri_buffer2 416 208 R0
SYMATTR InstName X9
SYMBOL tri_buffer2 624 208 R0
SYMATTR InstName X10
SYMBOL tri_buffer2 832 208 R0
SYMATTR InstName X11
SYMBOL tri_buffer2 1008 480 R0
SYMATTR InstName X12
SYMBOL tri_buffer2 1008 688 R0
SYMATTR InstName X13
SYMBOL tri_max1 848 688 R0
SYMATTR InstName X14
SYMBOL res 1136 608 R0
SYMATTR InstName R2
SYMATTR Value {R_pull/2}
SYMBOL tri_buffer1 1312 592 R0
SYMATTR InstName X15
