Version 4
SHEET 1 988 1244
WIRE -32 -48 -32 -64
WIRE -32 64 -32 48
WIRE 96 64 -32 64
WIRE 256 64 160 64
WIRE -32 80 -32 64
WIRE 448 112 448 96
WIRE -128 128 -128 112
WIRE 96 144 96 64
WIRE 112 144 96 144
WIRE 624 144 624 128
WIRE 656 144 656 128
WIRE 688 144 688 128
WIRE 160 160 -32 160
WIRE -32 192 -32 160
WIRE -16 192 -32 192
WIRE -128 208 -128 192
WIRE -128 208 -256 208
WIRE -80 208 -80 -32
WIRE -80 208 -128 208
WIRE 256 208 256 64
WIRE 400 208 256 208
WIRE 448 208 448 192
WIRE 448 208 400 208
WIRE 592 208 448 208
WIRE 768 208 720 208
WIRE -128 224 -128 208
WIRE 256 224 256 208
WIRE -16 240 -32 240
WIRE -32 272 -32 240
WIRE -80 288 -80 208
WIRE -128 304 -128 288
WIRE -32 384 -32 368
WIRE 96 384 -32 384
WIRE 256 384 256 304
WIRE 256 384 160 384
WIRE -32 400 -32 384
WIRE 96 464 96 384
WIRE 112 464 96 464
WIRE 160 480 -32 480
WIRE -32 496 -32 480
WIRE -32 608 -32 592
WIRE -32 720 -32 704
WIRE 96 720 -32 720
WIRE 256 720 160 720
WIRE -32 736 -32 720
WIRE -128 784 -128 768
WIRE 96 800 96 720
WIRE 112 800 96 800
WIRE 160 816 -32 816
WIRE -32 848 -32 816
WIRE -16 848 -32 848
WIRE -128 864 -128 848
WIRE -128 864 -256 864
WIRE -80 864 -80 624
WIRE -80 864 -128 864
WIRE 256 864 256 720
WIRE 400 864 400 208
WIRE 400 864 256 864
WIRE -128 880 -128 864
WIRE 256 880 256 864
WIRE -16 896 -32 896
WIRE -32 928 -32 896
WIRE -80 944 -80 864
WIRE -128 960 -128 944
WIRE -32 1040 -32 1024
WIRE 96 1040 -32 1040
WIRE 256 1040 256 960
WIRE 256 1040 160 1040
WIRE -32 1056 -32 1040
WIRE 96 1120 96 1040
WIRE 112 1120 96 1120
WIRE 160 1136 -32 1136
WIRE -32 1152 -32 1136
FLAG -32 496 G
IOPIN -32 496 In
FLAG -256 208 IN1
IOPIN -256 208 In
FLAG 768 208 OUT
IOPIN 768 208 Out
FLAG -256 864 IN2
IOPIN -256 864 In
FLAG -128 112 V+
IOPIN -128 112 In
FLAG -16 240 V+
IOPIN -16 240 In
FLAG 624 128 V+
IOPIN 624 128 In
FLAG -128 768 V+
IOPIN -128 768 In
FLAG -16 896 V+
IOPIN -16 896 In
FLAG -128 304 V-
IOPIN -128 304 In
FLAG -16 192 V-
IOPIN -16 192 In
FLAG 688 128 V-
IOPIN 688 128 In
FLAG -128 960 V-
IOPIN -128 960 In
FLAG -16 848 V-
IOPIN -16 848 In
FLAG -32 592 G
IOPIN -32 592 In
FLAG -32 1152 G
IOPIN -32 1152 In
FLAG 448 96 V+
IOPIN 448 96 In
FLAG -32 -64 G
IOPIN -32 -64 In
FLAG 656 128 G
IOPIN 656 128 In
SYMBOL nmos 112 64 R0
SYMATTR InstName M3
SYMATTR Value 2N7002
SYMBOL schottky -112 192 R180
WINDOW 0 24 64 Left 2
WINDOW 3 24 0 Left 2
SYMATTR InstName D1
SYMATTR Value BAT46WJ
SYMATTR Description Diode
SYMATTR Type diode
SYMBOL schottky -112 288 R180
WINDOW 0 24 64 Left 2
WINDOW 3 24 0 Left 2
SYMATTR InstName D2
SYMATTR Value BAT46WJ
SYMATTR Description Diode
SYMATTR Type diode
SYMBOL pmos -80 48 M180
SYMATTR InstName M1
SYMATTR Value BSS84
SYMBOL res 240 208 R0
SYMATTR InstName R4
SYMATTR Value {R_pull/2}
SYMBOL schottky -112 848 R180
WINDOW 0 24 64 Left 2
WINDOW 3 24 0 Left 2
SYMATTR InstName D3
SYMATTR Value BAT46WJ
SYMATTR Description Diode
SYMATTR Type diode
SYMBOL schottky -112 944 R180
WINDOW 0 24 64 Left 2
WINDOW 3 24 0 Left 2
SYMATTR InstName D4
SYMATTR Value BAT46WJ
SYMATTR Description Diode
SYMATTR Type diode
SYMBOL tri_buffer1 656 208 R0
SYMATTR InstName B1
SYMBOL res -48 64 R0
SYMATTR InstName R2
SYMATTR Value {R_pull}
SYMBOL pmos -80 368 M180
SYMATTR InstName M2
SYMATTR Value BSS84
SYMBOL res -48 384 R0
SYMATTR InstName R3
SYMATTR Value {R_pull}
SYMBOL nmos 112 384 R0
SYMATTR InstName M4
SYMATTR Value 2N7002
SYMBOL nmos 112 720 R0
SYMATTR InstName M7
SYMATTR Value 2N7002
SYMBOL pmos -80 704 M180
SYMATTR InstName M5
SYMATTR Value BSS84
SYMBOL res 240 864 R0
SYMATTR InstName R8
SYMATTR Value {R_pull/2}
SYMBOL res -48 720 R0
SYMATTR InstName R6
SYMATTR Value {R_pull}
SYMBOL pmos -80 1024 M180
SYMATTR InstName M6
SYMATTR Value BSS84
SYMBOL res -48 1040 R0
SYMATTR InstName R7
SYMATTR Value {R_pull}
SYMBOL nmos 112 1040 R0
SYMATTR InstName M8
SYMATTR Value 2N7002
SYMBOL res 432 96 R0
SYMATTR InstName R9
SYMATTR Value {5*R_pull}
