Version 4
SHEET 1 1568 944
WIRE 448 400 448 384
WIRE 480 400 480 384
WIRE 512 400 512 384
WIRE 656 400 656 384
WIRE 688 400 688 384
WIRE 720 400 720 384
WIRE 416 464 384 464
WIRE 624 464 544 464
WIRE 784 464 752 464
WIRE 896 480 896 464
WIRE 928 480 928 464
WIRE 960 480 960 464
WIRE 416 496 384 496
WIRE 560 496 544 496
WIRE 624 496 608 496
WIRE 768 496 752 496
WIRE 608 544 608 496
WIRE 608 544 384 544
WIRE 768 544 768 496
WIRE 864 544 768 544
WIRE 1024 544 992 544
WIRE 560 576 560 496
WIRE 864 576 560 576
FLAG 384 464 IN1
IOPIN 384 464 In
FLAG 384 496 IN2
IOPIN 384 496 In
FLAG 1024 544 CO
IOPIN 1024 544 Out
FLAG 384 544 CI
IOPIN 384 544 In
FLAG 448 384 V+
IOPIN 448 384 In
FLAG 480 384 G
IOPIN 480 384 In
FLAG 512 384 V-
IOPIN 512 384 In
FLAG 656 384 V+
IOPIN 656 384 In
FLAG 688 384 G
IOPIN 688 384 In
FLAG 720 384 V-
IOPIN 720 384 In
FLAG 896 464 V+
IOPIN 896 464 In
FLAG 928 464 G
IOPIN 928 464 In
FLAG 960 464 V-
IOPIN 960 464 In
FLAG 784 464 OUT
IOPIN 784 464 Out
SYMBOL tri_add 480 464 R0
SYMATTR InstName X1
SYMBOL tri_add 688 464 R0
SYMATTR InstName X2
SYMBOL tri_sigadd 928 544 R0
SYMATTR InstName X3
